  
       XFOIL         Version 6.99
  
 Calculated polar for: NACA 2412                                       
  
 1 1 Reynolds number fixed          Mach number fixed         
  
 xtrf =   1.000 (top)        1.000 (bottom)  
 Mach =   0.200     Re =     2.000 e 6     Ncrit =   9.000
  
   alpha    CL        CD       CDp       CM     Top_Xtr  Bot_Xtr
  ------ -------- --------- --------- -------- -------- --------
  -5.000  -0.3244   0.00739   0.00231  -0.0554   0.8646   0.0527
  -4.500  -0.2675   0.00710   0.00201  -0.0551   0.8417   0.0656
  -4.000  -0.2102   0.00687   0.00176  -0.0548   0.8159   0.0813
  -3.500  -0.1531   0.00664   0.00153  -0.0545   0.7883   0.1046
  -3.000  -0.0960   0.00645   0.00135  -0.0543   0.7586   0.1330
  -2.500  -0.0388   0.00628   0.00120  -0.0541   0.7272   0.1675
  -2.000   0.0183   0.00613   0.00109  -0.0540   0.6943   0.2103
  -1.500   0.0755   0.00600   0.00101  -0.0539   0.6611   0.2592
  -1.000   0.1326   0.00589   0.00096  -0.0538   0.6278   0.3142
  -0.500   0.1897   0.00578   0.00093  -0.0537   0.5948   0.3810
   0.000   0.2461   0.00559   0.00093  -0.0535   0.5632   0.4818
   1.000   0.3592   0.00534   0.00104  -0.0532   0.5058   0.6720
   1.500   0.4153   0.00527   0.00113  -0.0528   0.4799   0.7589
   2.000   0.4707   0.00523   0.00125  -0.0522   0.4544   0.8406
   2.500   0.5244   0.00526   0.00140  -0.0511   0.4292   0.9115
   3.000   0.5777   0.00544   0.00157  -0.0498   0.4004   0.9594
   3.500   0.6385   0.00574   0.00175  -0.0504   0.3648   0.9837
   4.000   0.7060   0.00617   0.00198  -0.0526   0.3197   0.9941
   4.500   0.7797   0.00670   0.00229  -0.0564   0.2673   0.9987
   5.000   0.8341   0.00728   0.00263  -0.0559   0.2160   1.0000
   5.500   0.8801   0.00791   0.00303  -0.0536   0.1678   1.0000
   6.500   0.9764   0.00921   0.00396  -0.0499   0.0939   1.0000
   7.000   1.0264   0.00987   0.00449  -0.0484   0.0700   1.0000
   7.500   1.0770   0.01051   0.00504  -0.0470   0.0543   1.0000
   8.000   1.1275   0.01117   0.00563  -0.0456   0.0430   1.0000
   8.500   1.1775   0.01184   0.00628  -0.0442   0.0351   1.0000
   9.000   1.2268   0.01255   0.00696  -0.0426   0.0295   1.0000
   9.500   1.2756   0.01325   0.00768  -0.0410   0.0259   1.0000
  10.000   1.3230   0.01401   0.00847  -0.0391   0.0230   1.0000
  10.500   1.3677   0.01490   0.00939  -0.0368   0.0203   1.0000
  11.000   1.4112   0.01578   0.01031  -0.0343   0.0185   1.0000
  11.500   1.4477   0.01684   0.01144  -0.0307   0.0169   1.0000
  12.000   1.4820   0.01788   0.01256  -0.0268   0.0158   1.0000
  12.500   1.5104   0.01932   0.01406  -0.0225   0.0144   1.0000
  13.000   1.5386   0.02087   0.01573  -0.0186   0.0137   1.0000
  13.500   1.5649   0.02265   0.01763  -0.0150   0.0129   1.0000
  14.000   1.5863   0.02494   0.02003  -0.0115   0.0122   1.0000
  14.500   1.5956   0.02840   0.02365  -0.0079   0.0114   1.0000
  15.000   1.6121   0.03164   0.02704  -0.0057   0.0111   1.0000
